/batch
/config,noeldb,1     ! force off writing results to database
*get,_wallstrt,active,,time,wall
! ANSYS input file written by Workbench version 2022 R2
! File used for geometry attach: C:\Users\fynnf\Documents\pycad\marimba_objects\Single_Bar0-Bar.step
/title,wbnew--Modal (A5)
! ****** Begin Custom Load Command Snippet ******
/COM, ACT Extensions:
/COM,     LSDYNA, 2022.2
/COM,     5f463412-bd3e-484b-87e7-cbc0a665e474, wbex
/COM,/COM,     ANSYSMotion, 2022.2
/COM,     20180725-3f81-49eb-9f31-41364844c769, wbex
/COM,
! ****** End   Custom Load Command Snippet ******
*DIM,_wb_ProjectScratch_dir,string,248
_wb_ProjectScratch_dir(1) = 'C:\Users\fynnf\AppData\Local\Temp\WB_fynnf_3376_2\_ProjectScratch\Scr1256\'
*DIM,_wb_SolverFiles_dir,string,248
_wb_SolverFiles_dir(1) = 'C:\Users\fynnf\AppData\Local\Temp\WB_fynnf_3376_2\wbnew_files\dp0\SYS\MECH\'
*DIM,_wb_userfiles_dir,string,248
_wb_userfiles_dir(1) = 'C:\Users\fynnf\AppData\Local\Temp\WB_fynnf_3376_2\wbnew_files\user_files\'
/com,--- Data in consistent MKS units. See Solving Units in the help system for more information.
/units,MKS
/nopr
/wb,file,start              !  signify a WB generated input file
/prep7
! Turn off shape checking because checks already performed inside WB mesher.
! See help system for more information.
SHPP,OFF,,NOWARN
/nolist
etcon,set             ! allow ANSYS to choose best KEYOP's for 180x elements, resets any applicable keyopt to MAPDL defaults
/com,*********** Nodes for the whole assembly ***********
nblock,3,,5962
(1i9,3e20.9e3)
        1     4.312073913E-01    -5.878285714E-02     1.930666667E-02
        2     4.312073913E-01    -4.898571429E-02     1.930666667E-02
        3     4.312073913E-01    -3.918857143E-02     1.930666667E-02
        4     4.312073913E-01    -2.939142857E-02     1.930666667E-02
        5     4.312073913E-01    -1.959428571E-02     1.930666667E-02
        6     4.312073913E-01    -9.797142857E-03     1.930666667E-02
        7     4.220147826E-01    -5.878285714E-02     1.930666667E-02
        8     4.220147826E-01    -4.898571429E-02     1.930666667E-02
        9     4.220147826E-01    -3.918857143E-02     1.930666667E-02
       10     4.220147826E-01    -2.939142857E-02     1.930666667E-02
       11     4.220147826E-01    -1.959428571E-02     1.930666667E-02
       12     4.220147826E-01    -9.797142857E-03     1.930666667E-02
       13     4.128221739E-01    -5.878285714E-02     1.930666667E-02
       14     4.128221739E-01    -4.898571429E-02     1.930666667E-02
       15     4.128221739E-01    -3.918857143E-02     1.930666667E-02
       16     4.128221739E-01    -2.939142857E-02     1.930666667E-02
       17     4.128221739E-01    -1.959428571E-02     1.930666667E-02
       18     4.128221739E-01    -9.797142857E-03     1.930666667E-02
       19     4.032076346E-01    -5.878285714E-02     1.988847968E-02
       20     4.032076346E-01    -4.898571429E-02     1.988847968E-02
! ... 5401 like lines cut
/wb,elem,start            !  set before creation of elements
/com,*********** Elements for Body 1 "Single_Bar0-Bar-FreeParts|Bar" ***********
et,1,186
keyo,1,2,1          ! set full integration on SOLID186
eblock,19,solid,,966
(19i9)
        1        1        1        1        0        0        0        0       20        0        1        1     1191     1184     1132      630     1202     1183     1182
     1510     4833     4775     1509     3723     4831     4829     3722     1508     4848     4830     4774
        1        1        1        1        0        0        0        0       20        0        2        1     1132     1184     1191        2     1133     1185     1193
     1509     4775     4833     1510     1514     4777     4835     1515     1505     4773     4832     4847
        1        1        1        1        0        0        0        0       20        0        3        2     1133     1185     1193        3     1134     1186     1195
     1514     4777     4835     1515     1519     4779     4837     1520     1511     4776     4834     4852
        1        1        1        1        0        0        0        0       20        0        4        3     1134     1186     1195        4     1135     1187     1197
     1519     4779     4837     1520     1524     4781     4839     1525     1516     4778     4836     4856
        1        1        1        1        0        0        0        0       20        0        5        4     1135     1187     1197        5     1136     1188     1199
     1524     4781     4839     1525     1529     4783     4841     1530     1521     4780     4838     4860
        1        1        1        1        0        0        0        0       20        0        6        5     1136     1188     1199        6     1137     1189     1201
     1529     4783     4841     1530     1534     4784     4842     1535     1526     4782     4840     4864
        1        1        1        1        0        0        0        0       20        0        7        6     1137     1189     1201      631      767      766      765
     1534     4784     4842     1535     3727     4042     4040     3726     1533     4045     4043     4041
        1        1        1        1        0        0        0        0       20        0        8        1      271     1190     1191      630      585     1203     1202
     1507     2639     4843     1510     3630     3631     4867     3723     1508     2638     4845     4848
        1        1        1        1        0        0        0        0       20        0        9        1     1191     1190      271        2     1193     1192      272
     1510     4843     2639     1507     1515     4849     2643     1513     1505     4847     4844     2636
        1        1        1        1        0        0        0        0       20        0       10        2     1193     1192      272        3     1195     1194      273
     1515     4849     2643     1513     1520     4853     2647     1518     1511     4852     4850     2641
! ... 1913 like lines cut
!Material Id = {D08F0910-577F-4E8F-8A7D-CE2A35795452}
/wb,elem,end               !  done creating elements
/com,*********** Send User Defined Coordinate System(s) ***********
csys,0
toffst,273.15,  ! Temperature offset from absolute zero
/com,*********** Set Reference Temperature ***********
tref,22.
/wb,mat,start              !  starting to send materials
/com,*********** Send Materials ***********
Temperature = 'TEMP' ! Temperature
MP,DENS,1,430,	! kg m^-3
MP,EX,1,8500000000,	! Pa
MP,NUXY,1,0.32,
MP,UVID,1,6ec4f9fd-eed3-417d-ad76-b92ab2f93901

/wb,mat,end                !  done sending materials
!************************* Model Summary ********************
!Single_Bar0-Bar-FreeParts|Bar,	Wood-Chestnut,	matid,	1
!************************* End Model Summary ********************
! get the diagonal of the bounding box. Needed later for other things
*get,_xmin,node,,mnloc,x
*get,_ymin,node,,mnloc,y
*get,_zmin,node,,mnloc,z
*get,_xmax,node,,mxloc,x
*get,_ymax,node,,mxloc,y
*get,_zmax,node,,mxloc,z
_ASMDIAG=(_xmax-_xmin)*(_xmax-_xmin)+(_ymax-_ymin)*(_ymax-_ymin)+(_zmax-_zmin)*(_zmax-_zmin)
_ASMDIAG=SQRT(_ASMDIAG)
/wb,contact,start          !  starting to send contact
/wb,contact,end            !  done creating contacts
/golist
/wb,load,start             !  starting to send loads
/com,******* Constant Zero Displacement Y *******
CMBLOCK,_DISPZEROUY,NODE,     2888
(8i10)
       541       542       543       544       545       546       547       548
       549       550       551       552       553       554       555       556
       557       558       559       560       561       562       563       564
       565       566       567       568       569       570       571       572
       573       574       575       576       577       578       579       580
       581       582       583       584       585       586       587       588
       589       590       591       592       593       594       595       596
       597       598       599       600       601       602       603       604
       605       606       607       608       609       610       611       612
       613       614       615       616       617       618       619       620
       621       622       623       624       625       626       627       628
       629       630       631       632       633       634       635       636
       637       638       639       640       641       642       643       644
       645       646       647       648       649       650       651       652
       653       654       655       656       657       658       659       660
       661       662       663       664       665       666       667       668
       669       670       671       672       673       674       675       676
       677       678       679       680       681       682       683       684
       685       686       687       688       689       690       691       692
       693       694       695       696       697       698       699       700
! ... 341 like lines cut

cmsel,s,_DISPZEROUY
d,all,uy,0
nsel,all
/gst,on,on
fini
*get,_numnode,node,0,count
*get,_numelem,elem,0,count
*get, _MAXELEMNUM, elem, 0, NUM, MAX
*get, _MAXNODENUM, node, 0, NUM, MAX
*get, _MAXELEMTYPE, etyp, 0, NUM, MAX
*get, _MAXREALCONST, rcon, 0, NUM, MAX
/go
/wb,load,end               !  done creating loads
/com,--- Number of total nodes = %_numnode%
/com,--- Number of contact elements = 0
/com,--- Number of spring elements = 0
/com,--- Number of bearing elements = 0
/com,--- Number of solid elements = 966
/com,--- Number of condensed parts = 0
/com,--- Number of total elements = %_numelem%
*get,_wallbsol,active,,time,wall
/solu
antype,2                   ! modal analysis
_thickRatio=  1     ! Ratio of thick parts in the model
modopt,lanb,10,10.,10000.
outres,erase
outres,all,none
outres,nsol,all
mxpand                    ! default expand in case of complex solution
dmpopt,esav,no
dmpopt,emat,no
dmpopt,full,no
! *********** WB SOLVE COMMAND ***********
! check interactive state
*get,ANSINTER_,active,,int
*if,ANSINTER_,ne,0,then
/eof
*endif
solve
/com *************** Write FE CONNECTORS ********* 
CEWRITE,file,ce,,INTE
*get,_nmodalsolproc,active,0,numcpu
fini
/nopr
*get,_numnode,node,0,count
*get,_numelem,elem,0,count
*get, _MAXELEMNUM, elem, 0, NUM, MAX
*get, _MAXNODENUM, node, 0, NUM, MAX,,,INTERNAL
*get, _MAXELEMTYPE, etyp, 0, NUM, MAX
*get, _MAXREALCONST, rcon, 0, NUM, MAX
*get,_NSOLTHREADS,active,0,ntfs
*get,_NSOLPROCESSES,active,0,npfs
/gopr
*get,_wallasol,active,,time,wall
/post1
/nopr
*dim,_direction,CHAR,6,1
_direction(1) = 'X'
_direction(2) = 'Y'
_direction(3) = 'Z'
_direction(4) = 'ROTX'
_direction(5) = 'ROTY'
_direction(6) = 'ROTZ'
*get,_lastLS,active,0,set,LSTP
*get,_beginset,active,0,set,nset,first,_lastLS
*get,_endset,active,0,set,nset,last,_lastLS
_nummodes = 0
*if,_endset,gt,0,then
_nummodes = _endset - _beginset + 1
*endif
*do,i_mode,1,_nummodes
   *do,j_component,1,6
			*get,PFACT_%i_mode%_%j_component%,MODE,%i_mode%,PFACT,,DIREC,_direction(%j_component%)
   *enddo
*enddo
*dim,_tmdirection,CHAR,6,1
_tmdirection(1) = 'X'
_tmdirection(2) = 'Y'
_tmdirection(3) = 'Z'
_tmdirection(4) = 'X'
_tmdirection(5) = 'Y'
_tmdirection(6) = 'Z'
*do,j_component,1,6
    *if,j_component,gt,3,then
        *get,TOTALMASS_%j_component%,ELEM,0,IOR,_tmdirection(%j_component%)
    *else
        *get,TOTALMASS_%j_component%,ELEM,0,MTOT,_tmdirection(%j_component%)
    *endif
*enddo
/gopr
xmlo,ENCODING,ISO-8859-1
xmlo,parm
/xml,parm,xml
fini
/gopr
*get,_walldone,active,,time,wall
_preptime=(_wallbsol-_wallstrt)*3600
_solvtime=(_wallasol-_wallbsol)*3600
_posttime=(_walldone-_wallasol)*3600
_totaltim=(_walldone-_wallstrt)*3600
*get,_dlbratio,active,0,solu,dlbr
*get,_combtime,active,0,solu,comb
*get,_ssmode,active,0,solu,ssmm
*get,_ndofs,active,0,solu,ndof
/fclean				!clean distributed files
/com,--- Total number of nodes = %_numnode%
/com,--- Total number of elements = %_numelem%
/com,--- Element load balance ratio = %_dlbratio%
/com,--- Time to combine distributed files = %_combtime%
/com,--- Sparse memory mode = %_ssmode%
/com,--- Number of DOF = %_ndofs%
/wb,file,end               ! done with WB generated input
